%chk=C:\Users\user01\Desktop\Formamide\Formamide-C1_Water.chk
# opt freq b3lyp/6-31+g(d) scrf=(cpcm,solvent=water) geom=connectivity

M0001

0 1
 H                  0.47164148    0.00000000   -1.42398046
 C                  0.58010195    0.00000000   -0.32739901
 O                  1.65787647    0.00000000    0.24582776
 N                 -0.61140240    0.00000000    0.32569957
 H                 -0.60015458    0.00000000    1.33729168
 H                 -1.49806292    0.00000000   -0.15743954

 1 2 1.0
 2 3 2.0 4 1.0
 3
 4 5 1.0 6 1.0
 5
 6

