%chk=C:\Users\user01\Desktop\Formamide\Formamide_Li-C1.chk
# opt freq b3lyp/6-31+g(d) geom=connectivity

M0001

1 1
 H                 -1.55961692    0.00000000    0.22900646
 C                 -0.49102143    0.00000000   -0.04623891
 O                 -0.09031346    0.00000000   -1.20942524
 N                  0.33529572    0.00000000    1.02837211
 H                  1.34272395    0.00000000    0.92881596
 H                 -0.02569061    0.00000000    1.97756350
 Li                 0.48862276    0.00000000   -2.90809388

 1 2 1.0
 2 3 2.0 4 1.0
 3
 4 5 1.0 6 1.0
 5
 6
 7

